
**** 11/08/21 12:17:13 ****** PSpice 16.5.0 (April 2011) ****** ID# 0 ********

 ** Profile: "VERIFY-Time1"  [ C:\Users\VLSI_A\Documents\ORCAD\DESIGNS\VLSI-21\Datapath-PSpiceFiles\VERIFY\Time1.sim ] 


 ****     CIRCUIT DESCRIPTION


******************************************************************************




** Creating circuit file "Time1.cir" 
** WARNING: THIS AUTOMATICALLY GENERATED FILE MAY BE OVERWRITTEN BY SUBSEQUENT SIMULATIONS

*Libraries: 
* Profile Libraries :
* Local Libraries :
.LIB "C:/Cadence/SPB_16.5/tools/pspice/library/UMC_018-TT.lib" 
* From [PSPICE NETLIST] section of C:\Cadence\SPB_16.5\tools\PSpice\PSpice.ini file:
.lib "nom.lib" 

*Analysis directives: 
.TRAN  0 2ns 0 1p 
.PROBE V(alias(*)) I(alias(*)) W(alias(*)) D(alias(*)) NOISE(alias(*)) 
.INC "..\VERIFY.net" 



**** INCLUDING VERIFY.net ****
* source DATAPATH
M_NOT1_M1         OUTN VIN N00487 N00487 MbreakPD  
+ L=180n  
+ W=1200n    
+ PD=960n  
+ PS=960n     
M_NOT1_M2         OUTN VIN 0 0 MbreakND  
+ L=180n  
+ W=240n    
+ PD=960n  
+ PS=960n     
M_NOT2_M2         OUT OUTN 0 0 MbreakND  
+ L=180n  
+ W=480n    
+ PD=1440n  
+ PS=1440n     
M_NOT2_M1         OUT OUTN N00487 N00487 MbreakPD  
+ L=180n  
+ W=2400n    
+ PD=5280n  
+ PS=5280n     
V_V1         N00487 0 1.8Vdc
V_V2         VIN 0  
+PULSE 0 1.8 0 10p 10p 490p 1n

**** RESUMING Time1.cir ****
.END

WARNING(ORPSIM-15235): Mosfet M_NOT1_M1, model MbreakPD: Pd = 9.6e-007 is less than W

WARNING(ORPSIM-15235): Mosfet M_NOT1_M1, model MbreakPD: Ps = 9.6e-007 is less than W

WARNING(ORPSIM-15236): Parameter HDIF in model MbreakPD is invalid - Ignored

WARNING(ORPSIM-15236): Parameter CTA in model MbreakPD is invalid - Ignored

WARNING(ORPSIM-15236): Parameter CTP in model MbreakPD is invalid - Ignored

WARNING(ORPSIM-15236): Parameter PTA in model MbreakPD is invalid - Ignored

WARNING(ORPSIM-15236): Parameter PTP in model MbreakPD is invalid - Ignored

WARNING(ORPSIM-15236): Parameter TLEVC in model MbreakPD is invalid - Ignored

WARNING(ORPSIM-15236): Parameter HDIF in model MbreakND is invalid - Ignored

WARNING(ORPSIM-15236): Parameter CTA in model MbreakND is invalid - Ignored

WARNING(ORPSIM-15236): Parameter CTP in model MbreakND is invalid - Ignored

WARNING(ORPSIM-15236): Parameter PTA in model MbreakND is invalid - Ignored

WARNING(ORPSIM-15236): Parameter PTP in model MbreakND is invalid - Ignored

WARNING(ORPSIM-15236): Parameter TLEVC in model MbreakND is invalid - Ignored

INFO(ORPSIM-15454): Model MbreakPD: Using BSIM VERSION 3.1 or lower

INFO(ORPSIM-15454): Model MbreakND: Using BSIM VERSION 3.1 or lower

**** 11/08/21 12:17:13 ****** PSpice 16.5.0 (April 2011) ****** ID# 0 ********

 ** Profile: "VERIFY-Time1"  [ C:\Users\VLSI_A\Documents\ORCAD\DESIGNS\VLSI-21\Datapath-PSpiceFiles\VERIFY\Time1.sim ] 


 ****     MOSFET MODEL PARAMETERS


******************************************************************************




               MbreakPD        MbreakND        
               PMOS            NMOS            
  T_Measured   27              27            
   T_Current   27              27            
       LEVEL    7               7            
           L  100.000000E-06  100.000000E-06 
           W  100.000000E-06  100.000000E-06 
         VTO    -.468253         .315559     
          KP  493.306300E-06  493.306300E-06 
       GAMMA    0               0            
      LAMBDA    0               0            
         RSH    8               8            
          IS    1.000000E-15    1.000000E-15 
          JS   13.000000E-06   33.900000E-06 
        JSSW   15.000000E-12   32.600000E-12 
          PB     .762            .79         
        PBSW    1               1            
          CJ    1.140000E-03    1.190000E-03 
        CJSW  174.000000E-12  160.000000E-12 
          MJ     .395            .515        
        MJSW     .324            .381        
        CGSO  158.000000E-12  121.000000E-12 
        CGDO  158.000000E-12  121.000000E-12 
        CGBO    0               0            
         TOX    4.200000E-09    4.200000E-09 
          XJ  180.000000E-09  160.000000E-09 
       UCRIT   10.000000E+03   10.000000E+03 
       DELTA     .015           1.000000E-03 
      DIOMOD    2               2            
          K1     .475224         .418147     
          K2     .03784         -.025055     
        LETA    0               0            
        WETA    0               0            
          U0    7.146010E-03     .032614     
       XPART    1               1            
        VTH0    -.468253         .315559     
          K3    1.82852         -.86508      
          W0    2.462436E-09   10.000000E-21 
         NLX   41.141920E-09  272.415500E-09 
        DVT0    3.749691        1.1079       
        DVT1    1.1007           .481697     
          UA -869.596000E-12   -1.168402E-09 
          UB    2.096885E-18    2.570923E-18 
          UC  -30.418200E-12   83.571000E-12 
        VSAT  188.767800E+03  101.374000E+03 
        RDSW  140.069          72.95411      
        VOFF    -.109287        -.094204     
     NFACTOR    1.76253         1.18932      
        CDSC    1.646561E-03    2.478640E-03 
        PCLM    1.139005        8.5993       
      PDIBL1    1.590000E-03    5.383091E-03 
      PDIBL2  173.811400E-06  208.402200E-06 
       DROUT                     .84         
      PSCBE1  456.047300E+06  630.000000E+06 
      PSCBE2  908.455500E-06   10.000000E-21 
          A0    1.739           1.962734     
          A1    0               0            
          A2     .4              .99         
       NPEAK  421.980000E+15  356.040000E+15 
         LDD    0               0            
        LITL   47.623520E-09   44.899890E-09 
         KT1    -.38            -.298        
         KT2    -.052           -.052        
         UA1 -210.000000E-12    1.830000E-09 
         UB1   -1.010000E-18   -2.610000E-18 
         UC1   86.000000E-12  120.000000E-12 
          AT    1.000000E+03   52.000000E+03 
        PVAG    1.753389        4.070936     
        KETA   -1.110090E-03   -1.100900E-03 
        ETA0     .111642         .071669     
        ETAB    -.04887        -1.798100E-03 
        KT1L   -8.000000E-09   -5.000000E-09 
         K3B    2.56099         1.155        
        DVT2   -1.120000E-03    -.0401       
       CDSCB  414.421000E-06  120.059000E-06 
         CIT  -79.328180E-06 -258.541000E-06 
        DSUB     .52121          .379041     
         UTE   -1.75           -1.79         
      MOBMOD    1               1            
      NQSMOD    0               0            
         AGS     .440113         .54479      
       DVT0W    1.57344          .196172     
       DVT1W    2.100000E+06  367.500000E+03 
       DVT2W     .4             -.080666     
        PRWG     .601376         .2          
        PRWB   -2.08777         -.13401      
         PRT -400            -310            
     PDIBLCB     .094574         .171484     
          WR    1.031559         .94427      
         DWG  -27.302200E-09   -5.320000E-09 
         DWB    6.250000E-09    7.701900E-09 
          B0   43.449200E-09   48.668600E-09 
          B1   14.000000E-09   14.053400E-09 
        LINT  -69.384470E-09   32.406100E-09 
          LL  366.127800E-12  -19.233680E-12 
         LLN     .35052          .474442     
          LW  -10.000000E-15   -5.000000E-21 
         LWL   21.088900E-18    1.427500E-18 
        LMIN  180.000000E-09  180.000000E-09 
        LMAX   50.000000E-06   50.000000E-06 
        WINT  -37.410000E-09   19.980000E-09 
          WL    2.000000E-15   -5.000000E-21 
          WW -862.120100E-18   -2.120403E-15 
         WWN    1.054187        1.039531     
         WWL  720.000000E-24 -241.500000E-24 
        WMIN  240.000000E-09  240.000000E-09 
        WMAX  100.000000E-06  100.000000E-06 
         DLC  -69.384470E-09   32.406100E-09 
         DWC  -37.410000E-09   19.980000E-09 
          CF  153.300000E-12  153.300000E-12 
        NOIA    9.900001E+18  100.000000E+18 
        NOIB    2.400000E+03   50.000000E+03 
        NOIC    1.400000E-12   -1.400000E-12 
         VTM     .025864         .025864     
     VERSION    3.1             3.1          
       PBSWG    1               1            
       MJSWG     .324            .381        
       CJSWG  174.000000E-12  160.000000E-12 
       JTSCD   13.000000E-06   33.900000E-06 
      JSTSCD   15.000000E-12   32.600000E-12 


WARNING(ORPSIM-15235): Mosfet M_NOT1_M1, model MbreakPD: Pd = 9.6e-007 is less than W

WARNING(ORPSIM-15235): Mosfet M_NOT1_M1, model MbreakPD: Ps = 9.6e-007 is less than W

WARNING(ORPSIM-15236): Parameter HDIF in model MbreakPD is invalid - Ignored

WARNING(ORPSIM-15236): Parameter CTA in model MbreakPD is invalid - Ignored

WARNING(ORPSIM-15236): Parameter CTP in model MbreakPD is invalid - Ignored

WARNING(ORPSIM-15236): Parameter PTA in model MbreakPD is invalid - Ignored

WARNING(ORPSIM-15236): Parameter PTP in model MbreakPD is invalid - Ignored

WARNING(ORPSIM-15236): Parameter TLEVC in model MbreakPD is invalid - Ignored

WARNING(ORPSIM-15236): Parameter HDIF in model MbreakND is invalid - Ignored

WARNING(ORPSIM-15236): Parameter CTA in model MbreakND is invalid - Ignored

WARNING(ORPSIM-15236): Parameter CTP in model MbreakND is invalid - Ignored

WARNING(ORPSIM-15236): Parameter PTA in model MbreakND is invalid - Ignored

WARNING(ORPSIM-15236): Parameter PTP in model MbreakND is invalid - Ignored

WARNING(ORPSIM-15236): Parameter TLEVC in model MbreakND is invalid - Ignored

**** 11/08/21 12:17:13 ****** PSpice 16.5.0 (April 2011) ****** ID# 0 ********

 ** Profile: "VERIFY-Time1"  [ C:\Users\VLSI_A\Documents\ORCAD\DESIGNS\VLSI-21\Datapath-PSpiceFiles\VERIFY\Time1.sim ] 


 ****     INITIAL TRANSIENT SOLUTION       TEMPERATURE =   27.000 DEG C


******************************************************************************



 NODE   VOLTAGE     NODE   VOLTAGE     NODE   VOLTAGE     NODE   VOLTAGE


(  OUT) 26.97E-09  (  VIN)    0.0000  ( OUTN)    1.8000  (N00487)    1.8000 




    VOLTAGE SOURCE CURRENTS
    NAME         CURRENT

    V_V1        -5.862E-11
    V_V2         0.000E+00

    TOTAL POWER DISSIPATION   1.06E-10  WATTS



          JOB CONCLUDED

**** 11/08/21 12:17:13 ****** PSpice 16.5.0 (April 2011) ****** ID# 0 ********

 ** Profile: "VERIFY-Time1"  [ C:\Users\VLSI_A\Documents\ORCAD\DESIGNS\VLSI-21\Datapath-PSpiceFiles\VERIFY\Time1.sim ] 


 ****     JOB STATISTICS SUMMARY


******************************************************************************



  Total job time (using Solver 1)   =        1.06
